.MODEL TIP31A npn
+IS=1e-09 BF=349.894 NF=1.25557 VAF=192.559
+IKF=2.15815 ISE=1.02894e-11 NE=3.07992 BR=0.1
+NR=1.5183 VAR=1.1352 IKR=10 ISC=5.61181e-13
+NC=3.92519 RB=3.4392 IRB=0.1 RBM=0.1
+RE=0.0202581 RC=0.10129 XTB=0.1 XTI=4
+EG=1.05 CJE=5.82455e-08 VJE=0.559239 MJE=0.503022
+TF=1e-08 XTF=1.35738 VTF=0.997151 ITF=0.999978
+CJC=4.44069e-10 VJC=0.400136 MJC=0.410388 XCJC=0.803125
+FC=0.626519 CJS=0 VJS=0.75 MJS=0.5
+TR=1e-07 PTF=0 KF=0 AF=1
